
    CNRS - NERC - Met OFFICE - MERCATOR-ocean - INGV - CMCC
                        NEMO team
             Ocean General Circulation Model
                 NEMO version 4.0  (2019) 

            ._      ._      ._      ._      ._    
        _.-._)`\_.-._)`\_.-._)`\_.-._)`\_.-._)`\_ 

            o         _,           _,             
             o      .' (        .-' /             
            o     _/..._'.    .'   /              
       (    o .-'`      ` '-./  _.'               
        )    ( o)           ;= <_         (       
       (      '-.,\\__ __.-;`\   '.        )      
        )  )       \) |`\ \)  '.   \      (   (   
       (  (           \_/       '-._\      )   )  
        )  ) jgs                     `    (   (   
      ^^^^^^^^^^^^^^^^^^^^^^^^^^^^^^^^^^^^^^^^^^^ 

  mynode : mpi initialisation
  ~~~~~~
     Namelist nammpp
        mpi send type          cn_mpi_send = I
        size exported buffer   nn_buffer   =            0  bytes
        jpni and jpnj will be calculated automatically
        avoid use of mpi_allgather at the north fold  ln_nnogather =  T
             Immediate non-blocking send (isend)


  usr_def_nam  : read the user defined namelist (namusr_def) in namelist_cfg
  ~~~~~~~~~~~
     Namelist namusr_def : GYRE case
        GYRE used as Benchmark (=T)                      ln_bench  =  T
        inverse resolution & implied domain size         nn_GYRE   =           25
           jpiglo = 30*nn_GYRE+2                            jpiglo =          752
           jpjglo = 20*nn_GYRE+2                            jpjglo =          502
        number of model levels                              jpkglo =           31
     Lateral b.c. of the global domain set to closed     jperio =            0

AAAAAAAA

 mpp_init:
 ~~~~~~~~ 

    ==> you use the best mpi decomposition

   Number of mpi processes:   160
   Number of ocean subdomains =   160
   Number of suppressed land subdomains =     0


 MPI Message Passing MPI - domain lay out over processors

    defines mpp subdomains
       jpni =           16
       jpnj =           10

       sum ilci(i,1) =          782  jpiglo =          752
       sum ilcj(1,j) =          520  jpjglo =          502

           ****************************************************************
           *              *               *               *               *   
        10 *   49  x 52   *    49  x 52   *    49  x 52   *    49  x 52   *   
           *        144   *         145   *         146   *         147   *         
           *              *               *               *               *   
           ****************************************************************
           *              *               *               *               *   
         9 *   49  x 52   *    49  x 52   *    49  x 52   *    49  x 52   *   
           *        128   *         129   *         130   *         131   *         
           *              *               *               *               *   
           ****************************************************************
           *              *               *               *               *   
         8 *   49  x 52   *    49  x 52   *    49  x 52   *    49  x 52   *   
           *        112   *         113   *         114   *         115   *         
           *              *               *               *               *   
           ****************************************************************
           *              *               *               *               *   
         7 *   49  x 52   *    49  x 52   *    49  x 52   *    49  x 52   *   
           *         96   *          97   *          98   *          99   *         
           *              *               *               *               *   
           ****************************************************************
           *              *               *               *               *   
         6 *   49  x 52   *    49  x 52   *    49  x 52   *    49  x 52   *   
           *         80   *          81   *          82   *          83   *         
           *              *               *               *               *   
           ****************************************************************
           *              *               *               *               *   
         5 *   49  x 52   *    49  x 52   *    49  x 52   *    49  x 52   *   
           *         64   *          65   *          66   *          67   *         
           *              *               *               *               *   
           ****************************************************************
           *              *               *               *               *   
         4 *   49  x 52   *    49  x 52   *    49  x 52   *    49  x 52   *   
           *         48   *          49   *          50   *          51   *         
           *              *               *               *               *   
           ****************************************************************
           *              *               *               *               *   
         3 *   49  x 52   *    49  x 52   *    49  x 52   *    49  x 52   *   
           *         32   *          33   *          34   *          35   *         
           *              *               *               *               *   
           ****************************************************************
           *              *               *               *               *   
         2 *   49  x 52   *    49  x 52   *    49  x 52   *    49  x 52   *   
           *         16   *          17   *          18   *          19   *         
           *              *               *               *               *   
           ****************************************************************
           *              *               *               *               *   
         1 *   49  x 52   *    49  x 52   *    49  x 52   *    49  x 52   *   
           *          0   *           1   *           2   *           3   *         
           *              *               *               *               *   
           ****************************************************************
                   1               2               3               4             

           ****************************************************************
           *              *               *               *               *   
        10 *   49  x 52   *    49  x 52   *    49  x 52   *    49  x 52   *   
           *        148   *         149   *         150   *         151   *         
           *              *               *               *               *   
           ****************************************************************
           *              *               *               *               *   
         9 *   49  x 52   *    49  x 52   *    49  x 52   *    49  x 52   *   
           *        132   *         133   *         134   *         135   *         
           *              *               *               *               *   
           ****************************************************************
           *              *               *               *               *   
         8 *   49  x 52   *    49  x 52   *    49  x 52   *    49  x 52   *   
           *        116   *         117   *         118   *         119   *         
           *              *               *               *               *   
           ****************************************************************
           *              *               *               *               *   
         7 *   49  x 52   *    49  x 52   *    49  x 52   *    49  x 52   *   
           *        100   *         101   *         102   *         103   *         
           *              *               *               *               *   
           ****************************************************************
           *              *               *               *               *   
         6 *   49  x 52   *    49  x 52   *    49  x 52   *    49  x 52   *   
           *         84   *          85   *          86   *          87   *         
           *              *               *               *               *   
           ****************************************************************
           *              *               *               *               *   
         5 *   49  x 52   *    49  x 52   *    49  x 52   *    49  x 52   *   
           *         68   *          69   *          70   *          71   *         
           *              *               *               *               *   
           ****************************************************************
           *              *               *               *               *   
         4 *   49  x 52   *    49  x 52   *    49  x 52   *    49  x 52   *   
           *         52   *          53   *          54   *          55   *         
           *              *               *               *               *   
           ****************************************************************
           *              *               *               *               *   
         3 *   49  x 52   *    49  x 52   *    49  x 52   *    49  x 52   *   
           *         36   *          37   *          38   *          39   *         
           *              *               *               *               *   
           ****************************************************************
           *              *               *               *               *   
         2 *   49  x 52   *    49  x 52   *    49  x 52   *    49  x 52   *   
           *         20   *          21   *          22   *          23   *         
           *              *               *               *               *   
           ****************************************************************
           *              *               *               *               *   
         1 *   49  x 52   *    49  x 52   *    49  x 52   *    49  x 52   *   
           *          4   *           5   *           6   *           7   *         
           *              *               *               *               *   
           ****************************************************************
                   5               6               7               8             

           ****************************************************************
           *              *               *               *               *   
        10 *   49  x 52   *    49  x 52   *    49  x 52   *    49  x 52   *   
           *        152   *         153   *         154   *         155   *         
           *              *               *               *               *   
           ****************************************************************
           *              *               *               *               *   
         9 *   49  x 52   *    49  x 52   *    49  x 52   *    49  x 52   *   
           *        136   *         137   *         138   *         139   *         
           *              *               *               *               *   
           ****************************************************************
           *              *               *               *               *   
         8 *   49  x 52   *    49  x 52   *    49  x 52   *    49  x 52   *   
           *        120   *         121   *         122   *         123   *         
           *              *               *               *               *   
           ****************************************************************
           *              *               *               *               *   
         7 *   49  x 52   *    49  x 52   *    49  x 52   *    49  x 52   *   
           *        104   *         105   *         106   *         107   *         
           *              *               *               *               *   
           ****************************************************************
           *              *               *               *               *   
         6 *   49  x 52   *    49  x 52   *    49  x 52   *    49  x 52   *   
           *         88   *          89   *          90   *          91   *         
           *              *               *               *               *   
           ****************************************************************
           *              *               *               *               *   
         5 *   49  x 52   *    49  x 52   *    49  x 52   *    49  x 52   *   
           *         72   *          73   *          74   *          75   *         
           *              *               *               *               *   
           ****************************************************************
           *              *               *               *               *   
         4 *   49  x 52   *    49  x 52   *    49  x 52   *    49  x 52   *   
           *         56   *          57   *          58   *          59   *         
           *              *               *               *               *   
           ****************************************************************
           *              *               *               *               *   
         3 *   49  x 52   *    49  x 52   *    49  x 52   *    49  x 52   *   
           *         40   *          41   *          42   *          43   *         
           *              *               *               *               *   
           ****************************************************************
           *              *               *               *               *   
         2 *   49  x 52   *    49  x 52   *    49  x 52   *    49  x 52   *   
           *         24   *          25   *          26   *          27   *         
           *              *               *               *               *   
           ****************************************************************
           *              *               *               *               *   
         1 *   49  x 52   *    49  x 52   *    49  x 52   *    49  x 52   *   
           *          8   *           9   *          10   *          11   *         
           *              *               *               *               *   
           ****************************************************************
                   9              10              11              12             

           ****************************************************************
           *              *               *               *               *   
        10 *   49  x 52   *    49  x 52   *    48  x 52   *    48  x 52   *   
           *        156   *         157   *         158   *         159   *         
           *              *               *               *               *   
           ****************************************************************
           *              *               *               *               *   
         9 *   49  x 52   *    49  x 52   *    48  x 52   *    48  x 52   *   
           *        140   *         141   *         142   *         143   *         
           *              *               *               *               *   
           ****************************************************************
           *              *               *               *               *   
         8 *   49  x 52   *    49  x 52   *    48  x 52   *    48  x 52   *   
           *        124   *         125   *         126   *         127   *         
           *              *               *               *               *   
           ****************************************************************
           *              *               *               *               *   
         7 *   49  x 52   *    49  x 52   *    48  x 52   *    48  x 52   *   
           *        108   *         109   *         110   *         111   *         
           *              *               *               *               *   
           ****************************************************************
           *              *               *               *               *   
         6 *   49  x 52   *    49  x 52   *    48  x 52   *    48  x 52   *   
           *         92   *          93   *          94   *          95   *         
           *              *               *               *               *   
           ****************************************************************
           *              *               *               *               *   
         5 *   49  x 52   *    49  x 52   *    48  x 52   *    48  x 52   *   
           *         76   *          77   *          78   *          79   *         
           *              *               *               *               *   
           ****************************************************************
           *              *               *               *               *   
         4 *   49  x 52   *    49  x 52   *    48  x 52   *    48  x 52   *   
           *         60   *          61   *          62   *          63   *         
           *              *               *               *               *   
           ****************************************************************
           *              *               *               *               *   
         3 *   49  x 52   *    49  x 52   *    48  x 52   *    48  x 52   *   
           *         44   *          45   *          46   *          47   *         
           *              *               *               *               *   
           ****************************************************************
           *              *               *               *               *   
         2 *   49  x 52   *    49  x 52   *    48  x 52   *    48  x 52   *   
           *         28   *          29   *          30   *          31   *         
           *              *               *               *               *   
           ****************************************************************
           *              *               *               *               *   
         1 *   49  x 52   *    49  x 52   *    48  x 52   *    48  x 52   *   
           *         12   *          13   *          14   *          15   *         
           *              *               *               *               *   
           ****************************************************************
                  13              14              15              16             

    resulting internal parameters : 
       nproc  =            0
       nowe   =           -1    noea  =             1
       nono   =           16    noso  =            -1
       nbondi =           -1
       nbondj =           -1
       npolj  =            0
     l_Iperio =  F
     l_Jperio =  F
       nlci   =           49
       nlcj   =           52
       nimpp  =            1
       njmpp  =            1
       nreci  =            2
       nrecj  =            2
       nn_hls =            1

 mpp_init_ioipsl :   iloc  =           49          52
 ~~~~~~~~~~~~~~~     iabsf =            1           1
                     ihals =            0           0
                     ihale =            1           1

 nemo_ctl: Control prints
 ~~~~~~~~
    Namelist namctl
       run control (for debugging)     ln_ctl     =  F
        finer control over o/p sn_cfctl%l_config  =  T
                               sn_cfctl%l_runstat =  F
                               sn_cfctl%l_trcstat =  F
                               sn_cfctl%l_oceout  =  F
                               sn_cfctl%l_layout  =  F
                               sn_cfctl%l_mppout  =  F
                               sn_cfctl%l_mpptop  =  F
                               sn_cfctl%procmin   =            0
                               sn_cfctl%procmax   =      1000000
                               sn_cfctl%procincr  =            1
                               sn_cfctl%ptimincr  =            1
       level of print                  nn_print   =            0
       Start i indice for SUM control  nn_ictls   =            0
       End i indice for SUM control    nn_ictle   =            0
       Start j indice for SUM control  nn_jctls   =            0
       End j indice for SUM control    nn_jctle   =            0
       number of proc. following i     nn_isplt   =            1
       number of proc. following j     nn_jsplt   =            1
       timing by routine               ln_timing  =  F
       CFL diagnostics                 ln_diacfl  =  F

    Namelist namcfg
       read domain configuration file                ln_read_cfg      =  F
          filename to be read                           cn_domcfg     = domain_cfg
          keep closed seas in the domain (if exist)     ln_closea     =  F
       create a configuration definition file        ln_write_cfg     =  F
          filename to be written                        cn_domcfg_out = domain_cfg_out
       use file attribute if exists as i/p j-start   ln_use_jattr     =  F

 phy_cst : initialization of ocean parameters and constants
 ~~~~~~~
       mathematical constant                 rpi =    3.1415926535897931     
       day                                rday   =    86400.000000000000       s
       sideral year                       rsiyea =    31558149.010110732       s
       sideral day                        rsiday =    86164.099655911836       s
       omega                              omega  =    7.2921150830460618E-005  s^-1

       nb of months per year               raamo =    12.000000000000000       months
       nb of hours per day                 rjjhh =    24.000000000000000       hours
       nb of minutes per hour              rhhmm =    60.000000000000000       mn
       nb of seconds per minute            rmmss =    60.000000000000000       s

       earth radius                         ra   =    6371229.0000000000       m
       gravity                              grav =    9.8066499999999994       m/s^2

       freezing point of water              rt0  =    273.14999999999998       K

    reference density and heat capacity now defined in eosbn2.f90

       thermal conductivity of pure ice          =    2.0343960000000001       J/s/m/K
       thermal conductivity of snow is defined in a namelist 
       fresh ice specific heat                   =    2067.0000000000000       J/kg/K
       latent heat of fusion of fresh ice / snow =    334000.00000000000       J/kg
       latent heat of subl.  of fresh ice / snow =    2834000.0000000000       J/kg
       density of sea ice                        =    917.00000000000000       kg/m^3
       density of snow                           =    330.00000000000000       kg/m^3
       density of freshwater (in melt ponds)     =    1000.0000000000000       kg/m^3
       salinity of ice (for pisces)              =    6.0000000000000000       psu
       salinity of sea (for pisces and isf)      =    34.700000000000003       psu
       latent heat of evaporation (water)        =    2500000.0000000000       J/m^3
       von Karman constant                       =   0.40000000000000002     
       Stefan-Boltzmann constant                 =    5.6699999999999998E-008  J/s/m^2/K^4

       conversion: degre ==> radian          rad =    1.7453292519943295E-002

       smallest real computer value       rsmall =    1.1102230246251565E-016

 eos_init : equation of state
 ~~~~~~~~
    Namelist nameos : Chosen the Equation Of Seawater (EOS)
       TEOS-10 : rho=F(Conservative Temperature, Absolute  Salinity, depth)   ln_TEOS10 =  F
       EOS-80  : rho=F(Potential    Temperature, Practical Salinity, depth)   ln_EOS80  =  T
       S-EOS   : rho=F(Conservative Temperature, Absolute  Salinity, depth)   ln_SEOS   =  F

    ==>>>   use of EOS-80 equation of state (pot. temp. and pract. salinity)

    ==>>>   model does not use Conservative Temperature

    Associated physical constant
       volumic mass of reference           rau0  =    1026.0000000000000       kg/m^3
       1. / rau0                        r1_rau0  =    9.7465886939571145E-004  m^3/kg
       ocean specific heat                 rcp   =    3991.8679571196299       J/Kelvin
       rau0 * rcp                       rau0_rcp =    4095656.5240047402     
       1. / ( rau0 * rcp )           r1_rau0_rcp =    2.4416109948160356E-007

 wad_init : Wetting and drying initialization through namelist read
 ~~~~~~~~
    Namelist namwad
       Logical for Iter Lim wd option   ln_wd_il     =  F
       Logical for Dir. Lim wd option   ln_wd_dl     =  F
       Depth at which wet/drying starts rn_wdmin0    =   0.29999999999999999     
       Minimum wet depth on dried cells rn_wdmin1    =   0.20000000000000001     
       Tolerance of min wet depth       rn_wdmin2    =    1.0000000000000000E-004
       land elevation threshold         rn_wdld      =    2.5000000000000000     
       Max iteration for W/D limiter    nn_wdit      =           20
       T => baroclinic u,v=0 at dry pts: ln_wd_dl_bc =  F
       use a ramp for rwd limiter:  ln_wd_dl_rwd_rmp =  F
       cut off depth sbc for wd   rn_wd_sbcdep       =    5.0000000000000000     
       fraction to start sbc wgt rn_wd_sbcfra        =   0.99900000000000000     
       No configuration file so seting ssh_ref to zero  

 dom_init : domain initialization
 ~~~~~~~~
    Domain info
       dimension of model:
              Local domain      Global domain       Data domain 
               jpi     :      49   jpiglo  :     752
               jpj     :      52   jpjglo  :     502
               jpk     :      31   jpkglo  :      31
               jpij    :    2548
       mpp local domain info (mpp):
               jpni    :           16    nn_hls  :            1
               jpnj    :           10    nn_hls  :            1
               jpnij   :          160
       lateral boundary of the Global domain : jperio  =            0
          (i.e. closed)
       Ocean model configuration used:
          cn_cfg = GYRE   nn_cfg =           25

 dom_glo : domain: global <<==>> local 
 ~~~~~~~ 
    global domain:   jpiglo =          752  jpjglo =          502  jpkglo =           31
    local  domain:   jpi    =           49  jpj    =           52  jpk    =           31

    conversion from local to global domain indices (and vise versa) done

 dom_nam : domain initialization through namelist read
 ~~~~~~~ 
    Namelist : namrun   ---   run parameters
       Assimilation cycle              nn_no           =            0
       experiment name for output      cn_exp          = GYRE
       file prefix restart input       cn_ocerst_in    = restart
       restart input directory         cn_ocerst_indir = .
       file prefix restart output      cn_ocerst_out   = restart
       restart output directory        cn_ocerst_outdir= .
       restart logical                 ln_rstart       =  F
       start with forward time step    nn_euler        =            1
       control of time step            nn_rstctl       =            0
       number of the first time step   nn_it000        =            1
       number of the last time step    nn_itend        =         4320
       initial calendar date aammjj    nn_date0        =        10101
       initial time of day in hhmm     nn_time0        =            0
       leap year calendar (0/1)        nn_leapy        =           30
       initial state output            nn_istate       =            0
       frequency of restart file       nn_stock        =         4320
       frequency of output file        nn_write        =           60
       mask land points                ln_mskland      =  F
       additional CF standard metadata ln_cfmeta       =  F
       overwrite an existing file      ln_clobber      =  T
       NetCDF chunksize (bytes)        nn_chunksz      =            0
       IS coupling at the restart step ln_iscpl        =  F
       READ restart for a single file using XIOS ln_xios_read = F
       Write restart using XIOS        nn_wxios   =            0

    ==>>>   Start from rest (ln_rstart=F)
            an Euler initial time step is used : nn_euler is forced to 0 

    ==>>>   The IOIPSL calendar is "360d", i.e. 360 days in a year

    Namelist : namdom   ---   space & time domain
       linear free surface (=T)                ln_linssh   =  T
       create mesh/mask file                   ln_meshmask =  F
       treshold to open the isf cavity         rn_isfhmin  =    1.0000000000000000       [m]
       ocean time step                         rn_rdt      =    7200.0000000000000     
       asselin time filter parameter           rn_atfp     =   0.10000000000000001     
       online coarsening of dynamical fields   ln_crs      =  F

 dom_hgr : define the horizontal mesh from ithe following par_oce parameters 
 ~~~~~~~   
    namcfg : read (=T) or user defined (=F) configuration    ln_read_cfg  =  F

           User defined horizontal mesh (usr_def_hgr)

 usr_def_hgr : GYRE configuration (beta-plane with rotated regular grid-spacing)
 ~~~~~~~~~~~

 ===>>> : W A R N I N G
         ===============

  GYRE used as Benchmark: e1=e2=106km, no need to adjust rdt, ahm,aht
                            beta-plane used. beta =    2.0020713612273290E-011  1/(s.m)
           Coriolis parameter have been set in usr_def_hgr routine
           u- & v-surfaces calculated as e1 e2 product

 dom_zgr : vertical coordinate
 ~~~~~~~
    linear free surface: the vertical mesh does not change in time

           User defined vertical mesh (usr_def_zgr)

 usr_def_zgr : GYRE configuration (z-coordinate closed flat box ocean without cavities)
 ~~~~~~~~~~~

     zgr_z   : Reference vertical z-coordinates 
     ~~~~~~~
        GYRE case : MI96 function with the following coefficients :
                  zsur =   -2033.1942952833849     
                  za0  =    155.83253696641529     
                  za1  =    146.36159186018901     
                  zkth =    17.285203724197910     
                  zacr =    5.0000000000000000     

               Reference 1D z-coordinate depth and scale factors:
          level  gdept_1d  gdepw_1d  e3t_1d   e3w_1d  
             1     4.98     0.00    10.00     9.95
             2    15.10    10.00    10.26    10.12
             3    25.54    20.27    10.65    10.44
             4    36.45    30.92    11.23    10.91
             5    48.07    42.15    12.09    11.62
             6    60.73    54.24    13.36    12.66
             7    74.94    67.60    15.24    14.21
             8    91.42    82.84    17.99    16.48
             9   111.22   100.82    21.99    19.80
            10   135.84   122.82    27.76    24.62
            11   167.35   150.58    35.94    31.50
            12   208.50   186.52    47.25    41.15
            13   262.83   233.77    62.44    54.33
            14   334.49   296.22    81.99    71.66
            15   427.90   378.20   105.84    93.41
            16   547.03   484.04   133.11   119.13
            17   694.55   617.15   162.10   147.52
            18   871.10   779.24   190.60   176.55
            19  1075.10   969.84   216.57   204.01
            20  1303.24  1186.41   238.62   228.13
            21  1551.23  1425.03   256.26   247.99
            22  1814.70  1681.29   269.71   263.48
            23  2089.75  1951.00   279.58   275.04
            24  2373.16  2230.58   286.64   283.41
            25  2662.49  2517.21   291.58   289.33
            26  2955.93  2808.79   294.99   293.44
            27  3252.20  3103.78   297.32   296.27
            28  3550.40  3401.10   298.91   298.20
            29  3849.90  3700.01   299.99   299.50
            30  4150.28  4000.00   300.71   300.38
            31  4451.26  4300.71   301.10   300.98

     zgr_top_bot : defines the top and bottom wet ocean levels.
     ~~~~~~~~~~~
        GYRE case : closed flat box ocean without ocean cavities

 clo_bat : suppression of closed seas
 ~~~~~~~
 No domain_cfg file => no suppression of closed seas.

    Type of vertical coordinate (read in domain_cfg file or set in userdef_nam) :
       z-coordinate - full steps      ln_zco    =  T
       z-coordinate - partial steps   ln_zps    =  F
       s- or hybrid z-s-coordinate    ln_sco    =  F
       ice shelf cavities             ln_isfcav =  F

     zgr_top_bot : ocean top and bottom k-index of T-, U-, V- and W-levels 
     ~~~~~~~~~~~

 dommsk : ocean mask 
 ~~~~~~
    Namelist namlbc
       lateral momentum boundary cond.    rn_shlat  =    0.0000000000000000     
       consistency with analytical form   ln_vorlat =  F

    ==>>>   ocean lateral  free-slip

 usr_def_fmask : NO alteration of fmask in specific straits 
 ~~~~~~~~~~~~~

 dom_ctl : extrema of the masked scale factors
 ~~~~~~~
              e1t maxi:  106000.00 at i =     2 j=     2
              e1t mini:  106000.00 at i =     2 j=     2
              e2t maxi:  106000.00 at i =     2 j=     2
              e2t mini:  106000.00 at i =     2 j=     2

 dom_init :   ==>>>   END of domain initialization
 ~~~~~~~~


 istate_init : Initialization of the dynamics and tracers
 ~~~~~~~~~~~

 dta_tsd_init : Temperature & Salinity data 
 ~~~~~~~~~~~~ 
    Namelist namtsd
       Initialisation of ocean T & S with T &S input data   ln_tsd_init =  F
       damping of ocean T & S toward T &S input data        ln_tsd_dmp  =  F


    ===>>   T & S data not used
  *** Info used values : 
    date ndastp                                      :        10100
    number of elapsed days since the begining of run :    0.0000000000000000     
    nn_time0                                         :            0

 =======>> 1/2 time step before the start of the run DATE Y/M/D =      0/12/30  nsec_day:   82800  nsec_week:   82800                     nsec_month: 2588400  nsec_year:31100400
======>> time-step =       1      New day, DATE Y/M/D = 0001/01/01      nday_year = 001
         nsec_year =     3600   nsec_month =    3600   nsec_day =  3600
   nsec_week =    90000

 usr_def_istate : analytical definition of initial state 
 ~~~~~~~~~~~~~~   Ocean at rest, with an horizontally uniform T and S profiles

 tide_init : tidal components not used (ln_tide = F)
 ~~~~~~~~~ 

 sbc_init : surface boundary condition setting
 ~~~~~~~~ 
    Namelist namsbc (partly overwritten with CPP key setting)
       frequency update of sbc (and ice)             nn_fsbc       =            1
       Type of air-sea fluxes : 
          user defined formulation                   ln_usr        =  T
          flux         formulation                   ln_flx        =  F
          bulk         formulation                   ln_blk        =  F
       Type of coupling (Ocean/Ice/Atmosphere) : 
          ocean-atmosphere coupled formulation       ln_cpl        =  F
          mixed forced-coupled     formulation       ln_mixcpl     =  F
          OASIS coupling (with atm or sas)           lk_oasis      =  F
          components of your executable              nn_components =            0
       Sea-ice : 
          ice management in the sbc (=0/1/2/3)       nn_ice        =            0
          ice embedded into ocean                    ln_ice_embd   =  F
       Misc. options of sbc : 
          Light penetration in temperature Eq.       ln_traqsr     =  T
             daily mean to diurnal cycle qsr            ln_dm2dc   =  F
          Sea Surface Restoring on SST and/or SSS    ln_ssr        =  F
          FreshWater Budget control  (=0/1/2)        nn_fwb        =            0
          Patm gradient added in ocean & ice Eqs.    ln_apr_dyn    =  F
          runoff / runoff mouths                     ln_rnf        =  F
          iceshelf formulation                       ln_isf        =  F
          nb of iterations if land-sea-mask applied  nn_lsm        =            0
          surface wave                               ln_wave       =  F
                Stokes drift corr. to vert. velocity ln_sdw        =  F
                   vertical parametrization          nn_sdrift     =            0
                wave modified ocean stress           ln_tauwoc     =  F
                wave modified ocean stress component ln_tauw       =  F
                Stokes coriolis term                 ln_stcor      =  F
                neutral drag coefficient (CORE,NCAR) ln_cdgw       =  F

    ==>>>   NEMO configured as a single executable (i.e. including both OPA and Surface module)

    ==>>>   user defined forcing formulation

 sbc_ssm_init : sea surface mean fields, nn_fsbc=1 : instantaneous values
 ~~~~~~~~~~~ 
    default initialisation of ss._m arrays

 bdy_init : open boundaries not used (ln_bdy = F)
 ~~~~~~~~

 zdf_phy_init: ocean vertical physics
 ~~~~~~~~~~~~
    Namelist namzdf : set vertical mixing mixing parameters
       adaptive-implicit vertical advection
          Courant number targeted application   ln_zad_Aimp =  F
       vertical closure scheme
          constant vertical mixing coefficient    ln_zdfcst =  F
          Richardson number dependent closure     ln_zdfric =  F
          Turbulent Kinetic Energy closure (TKE)  ln_zdftke =  T
          Generic Length Scale closure (GLS)      ln_zdfgls =  F
          OSMOSIS-OBL closure (OSM)               ln_zdfosm =  F
       convection: 
          enhanced vertical diffusion             ln_zdfevd =  T
             applied on momentum (=1/0)             nn_evdm =            1
             vertical coefficient for evd           rn_evd  =    100.00000000000000     
          non-penetrative convection (npc)        ln_zdfnpc =  F
             npc call  frequency                    nn_npc  =            1
             npc print frequency                    nn_npcp =          365
       double diffusive mixing                    ln_zdfddm =  F
          maximum avs for dd mixing                 rn_avts =    1.0000000000000000E-004
          heat/salt buoyancy flux ratio             rn_hsbfr=    1.6000000000000001     
       gravity wave-induced mixing
          surface  wave (Qiao et al 2010)         ln_zdfswm =  F
          internal wave (de Lavergne et al 2017)  ln_zdfiwm =  F
       coefficients : 
          vertical eddy viscosity                 rn_avm0   =    1.2000000000000000E-004
          vertical eddy diffusivity               rn_avt0   =    1.2000000000000000E-005
          constant background or profile          nn_avb    =            0
          horizontal variation for avtb           nn_havtb  =            0

    ==>>>   convection: use enhanced vertical diffusion scheme

    ==>>>   No  double diffusive mixing: avs = avt

 zdf_tke_init : tke turbulent closure scheme - initialisation
 ~~~~~~~~~~~~
    Namelist namzdf_tke : set tke mixing parameters
       coef. to compute avt                        rn_ediff  =   0.10000000000000001     
       Kolmogoroff dissipation coef.               rn_ediss  =   0.69999999999999996     
       tke surface input coef.                     rn_ebb    =    67.829999999999998     
       minimum value of tke                        rn_emin   =    9.9999999999999995E-007
       surface minimum value of tke                rn_emin0  =    1.0000000000000000E-004
       prandl number flag                          nn_pdl    =            1
       background shear (>0)                       rn_bshear =    9.9999999999999995E-021
       mixing length type                          nn_mxl    =            2
          surface mixing length = F(stress) or not    ln_mxl0   =  T
          surface  mixing length minimum value        rn_mxl0   =    4.0000000000000001E-002
       top/bottom friction forcing flag            ln_drg    =  F
       Langmuir cells parametrization              ln_lc     =  T
          coef to compute vertical velocity of LC     rn_lc  =   0.14999999999999999     
       test param. to add tke induced by wind      nn_etau   =            0
           type of tke penetration profile            nn_htau   =            1
           fraction of TKE that penetrates            rn_efr    =    5.0000000000000003E-002
           below sea-ice:  =0 ON                      rn_eice   =    4.0000000000000000     
           =4 OFF when ice fraction > 1/4   

    ==>>>   critical Richardson nb with your parameters  ri_cri =   0.22222222222222221     

    ==>>>   minimum mixing length with your parameters rmxl_min =    9.9999999999999985E-003

    ==>>>   use a surface mixing length = F(stress) :   set rn_mxl0 = rmxl_min

    ==>>>   start from rest: set en to the background value

 zdf_drg_init : top and/or bottom drag setting
 ~~~~~~~~~~~~
    Namelist namdrg : top/bottom friction choices
       free-slip       : Cd = 0                  ln_OFF      =  F
       linear  drag    : Cd = Cd0                ln_lin      =  F
       non-linear  drag: Cd = Cd0_nl |U|         ln_non_lin  =  T
       logarithmic drag: Cd = vkarmn/log(z/z0)   ln_loglayer =  F
       implicit friction                         ln_drgimp   =  T

    Namelist namdrg_bot : set BOTTOM friction parameters
       drag coefficient                        rn_Cd0   =    1.0000000000000000E-003
       characteristic velocity (linear case)   rn_Uc0   =   0.40000000000000002       m/s
       non-linear drag maximum                 rn_Cdmax =   0.10000000000000001     
       background kinetic energy  (n-l case)   rn_ke0   =    2.5000000000000001E-003
       bottom roughness           (n-l case)   rn_z0    =    3.0000000000000001E-003
       set a regional boost of Cd0             ln_boost =  F
          associated boost factor              rn_boost =    50.000000000000000     

    ==>>>   quadratic BOTTOM friction (propotional to module of the velocity)
    with    a drag coefficient Cd0 =    1.0000000000000000E-003 , and
            a background velocity module of (rn_ke0)^1/2 =    5.0000000000000003E-002 m/s)

 ldf_tra_init : lateral tracer diffusion
 ~~~~~~~~~~~~ 
    Namelist : namtra_ldf --- lateral mixing parameters (type, direction, coefficients)
       type :
          no explicit diffusion                   ln_traldf_OFF   =  F
          laplacian operator                      ln_traldf_lap   =  T
          bilaplacian operator                    ln_traldf_blp   =  F
       direction of action :
          iso-level                               ln_traldf_lev   =  F
          horizontal (geopotential)               ln_traldf_hor   =  F
          iso-neutral Madec operator              ln_traldf_iso   =  T
          iso-neutral triad operator              ln_traldf_triad =  F
             use the Method of Stab. Correction   ln_traldf_msc   =  F
             maximum isoppycnal slope             rn_slpmax       =    1.0000000000000000E-002
             pure lateral mixing in ML            ln_triad_iso    =  F
             switching triad or not               rn_sw_triad     =    1.0000000000000000     
             lateral mixing on bottom             ln_botmix_triad =  F
       coefficients :
          type of time-space variation            nn_aht_ijk_t    =            0
             lateral diffusive velocity (if cst)  rn_Ud           =    2.0000000000000000E-002  m/s
             lateral diffusive length   (if cst)  rn_Ld           =    100000.00000000000       m

    ==>>>   Rotated laplacian operator (standard)

    ==>>>   eddy diffusivity = constant =    1000.0000000000000       m2/s

 ldf_eiv_init : eddy induced velocity parametrization
 ~~~~~~~~~~~~ 
    Namelist namtra_eiv : 
       Eddy Induced Velocity (eiv) param.         ln_ldfeiv     =  F
       eiv streamfunction & velocity diag.        ln_ldfeiv_dia =  F
       coefficients :
          type of time-space variation            nn_aei_ijk_t  =            0
          lateral diffusive velocity (if cst)     rn_Ue         =    2.0000000000000000E-002  m/s
          lateral diffusive length   (if cst)     rn_Le         =    200000.00000000000       m

    ==>>>   eddy induced velocity param is NOT used

 ldf_dyn : lateral momentum physics
 ~~~~~~~
    Namelist namdyn_ldf : set lateral mixing parameters
       type :
          no explicit diffusion                ln_dynldf_OFF =  F
          laplacian operator                   ln_dynldf_lap =  T
          bilaplacian operator                 ln_dynldf_blp =  F
       direction of action :
          iso-level                            ln_dynldf_lev =  T
          horizontal (geopotential)            ln_dynldf_hor =  F
          iso-neutral                          ln_dynldf_iso =  F
       coefficients :
          type of time-space variation         nn_ahm_ijk_t  =            0
          lateral viscous velocity  (if cst)      rn_Uv      =    2.0000000000000000       m/s
          lateral viscous length    (if cst)      rn_Lv      =    100000.00000000000       m
          background viscosity (iso-lap case)     rn_ahm_b   =    0.0000000000000000       m2/s
       Smagorinsky settings (nn_ahm_ijk_t  = 32) :
          Smagorinsky coefficient              rn_csmc       =    3.5000000000000000     
          factor multiplier for eddy visc.
             lower limit (default 1.0)         rn_minfac    =    1.0000000000000000     
             upper limit (default 1.0)         rn_maxfac    =    1.0000000000000000     

    ==>>>   iso-level laplacian operator

    ==>>>   eddy viscosity. = constant =    100000.00000000000       m2/s

 tra_qsr_init : penetration of the surface solar radiation
 ~~~~~~~~~~~~
    Namelist namtra_qsr : set the parameter of penetration
       RGB (Red-Green-Blue) light penetration       ln_qsr_rgb =  F
       2 band               light penetration       ln_qsr_2bd =  T
       bio-model            light penetration       ln_qsr_bio =  F
       RGB : Chl data (=1) or cst value (=0)        nn_chldta  =            0
       RGB & 2 bands: fraction of light (rn_si1)    rn_abs     =   0.57999999999999996     
       RGB & 2 bands: shortess depth of extinction  rn_si0     =   0.34999999999999998     
       2 bands: longest depth of extinction         rn_si1     =    23.000000000000000     

    ==>>>   2 bands light penetration
         level of light extinction =           18  ref depth =    969.84377441468268       m

 tra_bbc : Bottom Boundary Condition (bbc), apply a Geothermal heating
 ~~~~~~~   
    Namelist nambbc : set bbc parameters
       Apply a geothermal heating at ocean bottom   ln_trabbc     =  F
       type of geothermal flux                      nn_geoflx     =            2
       Constant geothermal flux value               rn_geoflx_cst =    8.6400000000000005E-002

    ==>>>   no geothermal heat flux

 tra_bbl_init : bottom boundary layer initialisation
 ~~~~~~~~~~~~
        Namelist nambbl : set bbl parameters
           bottom boundary layer flag          ln_trabbl  =  F

 tra_dmp_init : T and S newtonian relaxation
 ~~~~~~~~~~~~
    Namelist namtra_dmp : set relaxation parameters
       Apply relaxation   or not       ln_tradmp   =  F
          mixed layer damping option      nn_zdmp  =            0
          Damping file name               cn_resto = resto.nc                                                                                                                                                                                                


 tra_adv_init : choice/control of the tracer advection scheme
 ~~~~~~~~~~~~
    Namelist namtra_adv : chose a advection scheme for tracers
       No advection on T & S                     ln_traadv_OFF =  F
       centered scheme                           ln_traadv_cen =  F
             horizontal 2nd/4th order               nn_cen_h   =            2
             vertical   2nd/4th order               nn_cen_v   =            2
       Flux Corrected Transport scheme           ln_traadv_fct =  T
             horizontal 2nd/4th order               nn_fct_h   =            2
             vertical   2nd/4th order               nn_fct_v   =            2
       MUSCL scheme                              ln_traadv_mus =  F
             + upstream scheme near river mouths    ln_mus_ups =  F
       UBS scheme                                ln_traadv_ubs =  F
             vertical   2nd/4th order               nn_ubs_v   =            2
       QUICKEST scheme                           ln_traadv_qck =  F

    ==>>>   FCT      scheme is used. Horizontal order:            2  Vertical   order:            2

 tra_mle_init : mixed layer eddy (MLE) advection acting on tracers
 ~~~~~~~~~~~~~
    Namelist namtra_mle : mixed layer eddy advection applied on tracers
       use mixed layer eddy (MLE, i.e. Fox-Kemper param) (T/F)      ln_mle       =  F
          MLE type: =0 standard Fox-Kemper ; =1 new formulation        nn_mle    =            1
          magnitude of the MLE (typical value: 0.06 to 0.08)           rn_ce     =    5.9999999999999998E-002
          scale of ML front (ML radius of deformation) (rn_mle=0)      rn_lf     =    5000.0000000000000      m
          maximum time scale of MLE                    (rn_mle=0)      rn_time   =    172800.00000000000      s
          reference latitude (degrees) of MLE coef.    (rn_mle=1)      rn_lat    =    20.000000000000000      deg
          space interp. of MLD at u-(v-)pts (0=min,1=averaged,2=max)   nn_mld_uv =            0
          =1 no MLE in case of convection ; =0 always MLE              nn_conv   =            0
          Density difference used to define ML for FK              rn_rho_c_mle  =    1.0000000000000000E-002

    ==>>>   Mixed Layer Eddy parametrisation NOT used

 tra_ldf_init : lateral tracer diffusive operator
 ~~~~~~~~~~~~
    Namelist namtra_ldf: already read in ldftra module
       see ldf_tra_init report for lateral mixing parameters

    ==>>>   Rotated laplacian operator (standard)

 dyn_adv_init : choice/control of the momentum advection scheme
 ~~~~~~~~~~~~
    Namelist namdyn_adv : chose a advection formulation & scheme for momentum
       linear dynamics : no momentum advection          ln_dynadv_OFF  =  F
       Vector form: 2nd order centered scheme           ln_dynadv_vec  =  T
          with Hollingsworth scheme (=1) or not (=0)       nn_dynkeg   =            0
       flux form: 2nd order centred scheme              ln_dynadv_cen2 =  F
                  3rd order UBS scheme                  ln_dynadv_ubs  =  F

    ==>>>   vector form : keg + zad + vor is used
               with Centered standard keg scheme

 dyn_vor_init : vorticity term : read namelist and control the consistency
 ~~~~~~~~~~~~
    Namelist namdyn_vor : choice of the vorticity term scheme
       enstrophy conserving scheme                    ln_dynvor_ens =  F
       f-point energy conserving scheme               ln_dynvor_ene =  T
       t-point energy conserving scheme               ln_dynvor_enT =  F
       energy conserving scheme  (een using e3t)      ln_dynvor_eeT =  F
       enstrophy and energy conserving scheme         ln_dynvor_een =  F
          e3f = averaging /4 (=0) or /sum(tmask) (=1)    nn_een_e3f =            0
       mixed enstrophy/energy conserving scheme       ln_dynvor_mix =  F
       masked (=T) or unmasked(=F) vorticity          ln_dynvor_msk =  F

       change fmask value in the angles (T)           ln_vorlat =  F

    ==>>>   vector form dynamics : total vorticity = Coriolis + relative vorticity

    ==>>>   energy conserving scheme (Coriolis at F-points) (ENE)

 dyn_ldf_init : Choice of the lateral diffusive operator on dynamics
 ~~~~~~~~~~~~
    Namelist namdyn_ldf: already read in ldfdyn module
       see ldf_dyn_init report for lateral mixing parameters

    ==>>>   iso-level laplacian operator

 dyn_hpg_init : hydrostatic pressure gradient initialisation
 ~~~~~~~~~~~~
    Namelist namdyn_hpg : choice of hpg scheme
       z-coord. - full steps                             ln_hpg_zco    =  T
       z-coord. - partial steps (interpolation)          ln_hpg_zps    =  F
       s-coord. (standard jacobian formulation)          ln_hpg_sco    =  F
       s-coord. (standard jacobian formulation) for isf  ln_hpg_isf    =  F
       s-coord. (Density Jacobian: Cubic polynomial)     ln_hpg_djc    =  F
       s-coord. (Pressure Jacobian: Cubic polynomial)    ln_hpg_prj    =  F

    ==>>>   z-coord. - full steps 


 dyn_spg_init : choice of the surface pressure gradient scheme
 ~~~~~~~~~~~~
    Namelist : namdyn_spg                    
       Explicit free surface                  ln_dynspg_exp =  F
       Free surface with time splitting       ln_dynspg_ts  =  T

    ==>>>   free surface with time splitting scheme

 dyn_spg_ts_init : split-explicit free surface
 ~~~~~~~~~~~~~~~
      ln_ts_auto =.true. Automatically set nn_baro 
      Max. courant number allowed:   0.80000000000000004     
      ln_bt_av =.true.  ==> Time averaging over nn_baro time steps is on 
      ln_bt_fw=.true.  => Forward integration of barotropic variables 
      Time filter choice, nn_bt_flt:            1
            Boxcar: width = nn_baro
  
      nn_baro =           25
      Barotropic time step [s] is :   288.00000000000000     
      Maximum Courant number is   :  0.78909999087278793     
      Time diffusion parameter rn_bt_alpha:    0.0000000000000000     

    ==>>>   start from rest: set barotropic values to 0

 trc_init : initial set up of the passive tracers
 ~~~~~~~~

 trc_nam_run : read the passive tracer namelists
 ~~~~~~~~~~~
    Namelist : namtrc_run
       time step freq. for passive tracer           nn_dttrc      =            1
       restart  for passive tracer                  ln_rsttr      =  F
       control of time step for passive tracer      nn_rsttr      =            0
       first time step for pass. trac.              nittrc000     =            1
       Use euler integration for TRC (y/n)          ln_top_euler  =  F

 trc_nam_trc : read the passive tracer namelists
 ~~~~~~~~~~~
    Namelist : namtrc
       Total number of passive tracers              jptra         =            6
       Total number of BGC tracers                  jp_bgc        =            6
       Simulating PISCES model                      ln_pisces     =  T
       Simulating MY_TRC  model                     ln_my_trc     =  F
       Simulating water mass age                    ln_age        =  F
       Simulating CFC11 passive tracer              ln_cfc11      =  F
       Simulating CFC12 passive tracer              ln_cfc12      =  F
       Simulating SF6 passive tracer                ln_sf6        =  F
       Total number of CFCs tracers                 jp_cfc        =            0
       Simulating C14   passive tracer              ln_c14        =  F
       Read inputs data from file (y/n)             ln_trcdta     =  F
       Damping of passive tracer (y/n)              ln_trcdmp     =  F
       Restoring of tracer on closed seas           ln_trcdmp_clo =  F

    ==>>>   All the passive tracers are initialised with constant values 

    ==>>>   Passive Tracer  time step    rdttrc = nn_dttrc*rdt =    7200.0000000000000     



 trc_nam_pisces : read PISCES namelist
 ~~~~~~~~~~~~~~
    Namelist : nampismod 
       Flag to use LOBSTER model            ln_p2z      =  T
       Flag to use PISCES standard model    ln_p4z      =  F
       Flag to use PISCES quota    model    ln_p5z      =  F
       Flag to ligand                       ln_ligand   =  F
       Flag to use sediment                 ln_sediment =  F

    ==>>>   LOBSTER model is used

  p2z_ini :   LOBSTER biochemical model initialisation
  ~~~~~~~

  first vertical layers where biology is active (200m depth )           12


  Namelist namlobopt
     green   water absorption coeff                       xkg0  =    2.3199999999999998E-002
     red water absorption coeff                           xkr0  =   0.22500000000000001     
     pigment red absorption coeff                         xkrp  =    3.6999999999999998E-002
     pigment green absorption coeff                       xkgp  =    7.3999999999999996E-002
     green chl exposant                                   xlg   =   0.67400000000000004     
     red   chl exposant                                   xlr   =   0.62900000000000000     
     chla/chla+phea ratio                                 rpig  =   0.69999999999999996     
  
  Namelist namlobrat
      carbone/chlorophyl ratio                             rcchl =    60.000000000000000     
     redfield ratio  c:n for phyto                        redf      =   6.5599999999999996     
     redfield ratio  c:n for DOM                          reddom    =   6.5599999999999996     
  
    Namelist namlobsed
       time coeff of POC in sediments                sedlam    =   3.8599999999999999E-007
       Sediment geol loss for POC                    sedlostpoc=   0.0000000000000000     
       detritus sedimentation speed                  vsed      =   2.9980800000000003       d
       coeff for martin's remineralistion           xhr       = -0.85799999999999998     
  

  p2z_bio_init : LOBSTER bio-model initialization
  ~~~~~~~~~~~~
    Namelist namlobphy
       phyto max growth rate                                tmumax    =   1.0454399999999999       d
       phytoplankton exudation fraction                     rgamma    =   5.0000000000000003E-002
       NH4 fraction of phytoplankton exsudation             fphylab   =  0.75000000000000000     
       minimal phyto mortality rate                         tmminp    =   5.0111999999999997E-002
       light hlaf saturation constant                       aki       =   33.000000000000000     

    Namelist namlobnut
       half-saturation nutrient for no3 uptake              akno3     =  0.69999999999999996     
       half-saturation nutrient for nh4 uptake              aknh4     =   1.0000000000000000E-003
       nitrification rate                                   taunn     =   5.7999999999999995E-007
       inhibition of no3 uptake by nh4                      psinut    =   3.0000000000000000     

    Namelist namlobzoo
       zoo preference for phyto                             rppz      =  0.80000000000000004     
       maximal zoo grazing rate                             taus      =  0.80006400000000000       d
       half saturation constant for zoo food                aks       =   1.0000000000000000     
       non-assimilated phyto by zoo                         rpnaz     =  0.29999999999999999     
       non-assimilated detritus by zoo                      rdnaz     =  0.29999999999999999     
       zoo specific excretion rate                          tauzn     =   6.9984000000000005E-002
       minimal zoo mortality rate                           tmminz    =  0.19958399999999998     
       NH4 fraction of zooplankton excretion                fzoolab   =  0.50000000000000000     
       Zooplankton mortality fraction that goes to detritus fdbod     =  0.50000000000000000     

    Namelist namlobdet
       detrital breakdown rate                              taudn     =   5.0111999999999997E-002  d
       NH4 fraction of detritus dissolution                 fdetlab   =   0.0000000000000000     

    Namelist namlobdom
       DOM breakdown rate                                 taudomn     =   5.0111999999999997E-002  d

  p2z_exp: LOBSTER export
  ~~~~~~~
   compute remineralisation-damping arrays for tracers

    ==>>>   Initialization of LOBSTER tracers done


 trc_init_sms : Summary for selected passive tracers
 ~~~~~~~~~~~~
     ID     NAME     INI  SBC  CBC  OBC
     1        DET    F    F    F    F
     2        ZOO    F    F    F    F
     3        PHY    F    F    F    F
     4        NO3    F    F    F    F
     5        NH4    F    F    F    F
     6        DOM    F    F    F    F

 trc_adv_ini : choice/control of the tracer advection scheme
 ~~~~~~~~~~~
    Namelist namtrc_adv : chose a advection scheme for tracers
       No advection on passive tracers           ln_trcadv_OFF =  F
       centered scheme                           ln_trcadv_cen =  F
             horizontal 2nd/4th order               nn_cen_h   =            2
             vertical   2nd/4th order               nn_cen_v   =            2
       Flux Corrected Transport scheme           ln_trcadv_fct =  T
             horizontal 2nd/4th order               nn_fct_h   =            2
             vertical   2nd/4th order               nn_fct_v   =            2
       MUSCL scheme                              ln_trcadv_mus =  F
             + upstream scheme near river mouths    ln_mus_ups =  F
       UBS scheme                                ln_trcadv_ubs =  F
             vertical   2nd/4th order               nn_ubs_v   =            2
       QUICKEST scheme                           ln_trcadv_qck =  F

       ===>>   FCT      scheme is used. Horizontal order:            2  Vertical   order:            2

 trc_ldf_ini : lateral passive tracer diffusive operator
 ~~~~~~~~~~~
    Namelist namtrc_ldf : set lateral mixing parameters (type, direction, coefficients)
       no explicit diffusion                 ln_trcldf_OFF   =  F
       use active tracer operator            ln_trcldf_tra   =  T
       diffusivity coefficient :
          multiplier of TRA coef. for TRC       rn_ldf_multi =    1.0000000000000000     
          enhanced zonal Eq. laplacian coef.    rn_fact_lap  =    1.0000000000000000     

       ===>>   Rotated laplacian operator (standard)

 trc_rad : Correct artificial negative concentrations 
 ~~~~~~~ 
    Namelist namtrc_rad : treatment of negative concentrations
       correct artificially negative concen. or not   ln_trcrad =  F

       ===>>   NO strict global tracer conservation

 trc_sink : Sedimentation of particles 
 ~~~~~~~ 
    Namelist namtrc_snk : sedimentation of particles
    Maximum number of iterations   nitermax =            2


 trc_ice_ini : Initialize sea ice tracer boundary condition
 ~~~~~~~~~~~~~

 trc_nam_ice : Read the namelist for trc_ice
 ~~~~~~~~~~~~~~~~~~~~~~~~~~~~~~~~~~~~~~~~~~~
  
    Namelist : namtrc_ice
       Sea ice tracers option (nn_ice_tr) :           -1

 trc_ini_inv : initial passive tracers inventories
 ~~~~~~~~~~~

    ==>>>   Total number of passive tracer jptra =            6
            Total volume of ocean                =    1.8121041657537073E+019
            Total inital content of all tracers 

      tracer nb :  1      name :       DET      initial content :  0.1812104166E+19
      tracer nb :  2      name :       ZOO      initial content :  0.1812104166E+19
      tracer nb :  3      name :       PHY      initial content :  0.1812104166E+19
      tracer nb :  4      name :       NO3      initial content :  0.3624208332E+20
      tracer nb :  5      name :       NH4      initial content :  0.1812104166E+19
      tracer nb :  6      name :       DOM      initial content :  0.1812104166E+20



 ldf_slp_init : direction of lateral mixing
 ~~~~~~~~~~~~
    ==>>>   iso operator (Madec)

 icb_nam : iceberg initialization through namberg namelist read
 ~~~~~~~~ 

    ==>>>   No icebergs used

 sto_par_init : NO use of stochastic parameterization
 ~~~~~~~~~~~~

 dia_ptr_init : poleward transport and msf initialization
 ~~~~~~~~~~~~
    Namelist namptr : set ptr parameters
       Poleward heat & salt transport (T) or not (F)      ln_diaptr  =  F
       Global (F) or glo/Atl/Pac/Ind/Indo-Pac basins      ln_subbas  =  F

 dia_hsb_init : heat and salt budgets diagnostics
 ~~~~~~~~~~~~ 
    Namelist  namhsb :
       check the heat and salt budgets (T) or not (F)       ln_diahsb =  F

 trd_init : Momentum/Tracers trends
 ~~~~~~~~
    Namelist namtrd : set trends parameters
       global domain averaged dyn & tra trends   ln_glo_trd  =  F
       U & V trends: 3D output                   ln_dyn_trd  =  F
       U & V trends: Mixed Layer averaged        ln_dyn_mxl  =  F
       T & S trends: 3D output                   ln_tra_trd  =  F
       T & S trends: Mixed Layer averaged        ln_tra_mxl  =  F
       Kinetic   Energy trends                   ln_KE_trd   =  F
       Potential Energy trends                   ln_PE_trd   =  F
       Barotropic vorticity trends               ln_vor_trd  =  F
       frequency of trends diagnostics (glo)     nn_trd      =          365

 dia_obs_init : NO Observation diagnostic used
 ~~~~~~~~~~~~

 dia_tmb_init : Output Top, Middle, Bottom Diagnostics
 ~~~~~~~~~~~~
    Namelist nam_diatmb : set tmb outputs 
       Switch for TMB diagnostics (T) or not (F)  ln_diatmb  =  F

 dia_25h_init : Output 25 hour mean diagnostics
 ~~~~~~~~~~~~
    Namelist nam_dia25h : set 25h outputs 
       Switch for 25h diagnostics (T) or not (F)  ln_dia25h  =  F

AAAAAAAA


AAAAAAAA


 usrdef_sbc_oce : analytical surface fluxes for GYRE configuration
 ~~~~~~~~~~~ 
            nyear      =            1
            nmonth     =            1
            nday       =            1
            nday_year  =            1
            ztime      =    2.0000000000000000     
            ztimemax   =    4104.0000000000000     
            ztimemin   =    8424.0000000000000     
            ztimemax1  =    4104.0000000000000     
            ztimemin1  =    8424.0000000000000     
            ztimemax2  =    4824.0000000000000     
            ztimemin2  =    504.00000000000000     
            zyear0     =            1
            zmonth0    =            1
            zday0      =            1
            zday_year0 =            1
            zyydd      =    360.00000000000000     
            zemp_S     =   0.69999999999999996     
            zemp_N     =   0.80000000000000004     
            zemp_sais  =   0.10000000000000001     
            zTstar     =    28.300000000000001     
            zsumemp    =    8.4949477015037499E-006
            zsurf      =    375000.00000000000     
            ztrp       =   -40.000000000000000     
            zconv      =    3.1600000000000002E-005
            ndastp     =        10101
            adatrj     =    8.3333333333333329E-002
           nit000-1 surface forcing fields set to nit000

 zdf_evd : Enhanced Vertical Diffusion (evd)
 ~~~~~~~ 


 zdf_mxl : mixed layer depth
 ~~~~~~~ 

 ssh_nxt : after sea surface height
 ~~~~~~~ 

 div_hor : horizontal velocity divergence 
 ~~~~~~~   

 wzv : now vertical velocity 
 ~~~~~ 

 dyn_keg : kinetic energy gradient trend, scheme number=           0
 ~~~~~~~

 dyn_zad : 2nd order vertical advection scheme

 dyn:vor_ene : vorticity term: energy conserving scheme
 ~~~~~~~~~~~

 dyn_ldf : iso-level harmonic (laplacian) operator, pass=           1
 ~~~~~~~ 

 dyn:hpg_zco : hydrostatic pressure gradient trend
 ~~~~~~~~~~~   z-coordinate case 

 dyn_spg_ts : surface pressure gradient trend
 ~~~~~~~~~~   free surface with time splitting


 div_hor : horizontal velocity divergence 
 ~~~~~~~   

 dyn_zdf_imp : vertical momentum diffusion implicit operator
 ~~~~~~~~~~~ 

 wzv : now vertical velocity 
 ~~~~~ 

  p2z_opt : LOBSTER optic-model
  ~~~~~~~ 

  p2z_bio: LOBSTER bio-model
  ~~~~~~~

  p2z_sed: LOBSTER sedimentation
  ~~~~~~~

  p2z_exp: LOBSTER export
  ~~~~~~~
   compute remineralisation-damping arrays for tracers

 trc_sbc : Passive tracers surface boundary condition
 ~~~~~~~ 

 tra_adv_fct : FCT advection scheme on TRC
 ~~~~~~~~~~~

 tra_ldf_iso : rotated laplacian diffusion operator on TRC
 ~~~~~~~~~~~

 trc_nxt : time stepping on passive tracers

 tra_sbc : TRAcer Surface Boundary Condition
 ~~~~~~~ 

 tra_qsr : penetration of the surface solar radiation
 ~~~~~~~

 tra_adv_fct : FCT advection scheme on TRA
 ~~~~~~~~~~~

 tra_ldf_iso : rotated laplacian diffusion operator on TRA
 ~~~~~~~~~~~

 tra_zdf : implicit vertical mixing on T & S
 ~~~~~~~ 

 tra_nxt : achieve the time stepping by Asselin filter and array swap
 ~~~~~~~

 dyn_nxt : time stepping
 ~~~~~~~

 ssh_swp : Asselin time filter and swap of sea surface height
 ~~~~~~~ 

 stp_ctl : time-stepping control
 ~~~~~~~
      file   : time.step open ok
      unit   =           27
      status = REPLACE
      form   = FORMATTED
      access = SEQUENTIAL

======>> time-step =      13      New day, DATE Y/M/D = 0001/01/02      nday_year = 002
         nsec_year =    90000   nsec_month =   90000   nsec_day =  3600
   nsec_week =   176400
======>> time-step =      25      New day, DATE Y/M/D = 0001/01/03      nday_year = 003
         nsec_year =   176400   nsec_month =  176400   nsec_day =  3600
   nsec_week =   262800
======>> time-step =      37      New day, DATE Y/M/D = 0001/01/04      nday_year = 004
         nsec_year =   262800   nsec_month =  262800   nsec_day =  3600
   nsec_week =   349200
======>> time-step =      49      New day, DATE Y/M/D = 0001/01/05      nday_year = 005
         nsec_year =   349200   nsec_month =  349200   nsec_day =  3600
   nsec_week =   435600
======>> time-step =      61      New day, DATE Y/M/D = 0001/01/06      nday_year = 006
         nsec_year =   435600   nsec_month =  435600   nsec_day =  3600
   nsec_week =   522000
======>> time-step =      73      New day, DATE Y/M/D = 0001/01/07      nday_year = 007
         nsec_year =   522000   nsec_month =  522000   nsec_day =  3600
   nsec_week =   608400
======>> time-step =      85      New day, DATE Y/M/D = 0001/01/08      nday_year = 008
         nsec_year =   608400   nsec_month =  608400   nsec_day =  3600
   nsec_week =    90000
======>> time-step =      97      New day, DATE Y/M/D = 0001/01/09      nday_year = 009
         nsec_year =   694800   nsec_month =  694800   nsec_day =  3600
   nsec_week =   176400
======>> time-step =     109      New day, DATE Y/M/D = 0001/01/10      nday_year = 010
         nsec_year =   781200   nsec_month =  781200   nsec_day =  3600
   nsec_week =   262800
======>> time-step =     121      New day, DATE Y/M/D = 0001/01/11      nday_year = 011
         nsec_year =   867600   nsec_month =  867600   nsec_day =  3600
   nsec_week =   349200
======>> time-step =     133      New day, DATE Y/M/D = 0001/01/12      nday_year = 012
         nsec_year =   954000   nsec_month =  954000   nsec_day =  3600
   nsec_week =   435600
======>> time-step =     145      New day, DATE Y/M/D = 0001/01/13      nday_year = 013
         nsec_year =  1040400   nsec_month = 1040400   nsec_day =  3600
   nsec_week =   522000
======>> time-step =     157      New day, DATE Y/M/D = 0001/01/14      nday_year = 014
         nsec_year =  1126800   nsec_month = 1126800   nsec_day =  3600
   nsec_week =   608400
======>> time-step =     169      New day, DATE Y/M/D = 0001/01/15      nday_year = 015
         nsec_year =  1213200   nsec_month = 1213200   nsec_day =  3600
   nsec_week =    90000
======>> time-step =     181      New day, DATE Y/M/D = 0001/01/16      nday_year = 016
         nsec_year =  1299600   nsec_month = 1299600   nsec_day =  3600
   nsec_week =   176400
======>> time-step =     193      New day, DATE Y/M/D = 0001/01/17      nday_year = 017
         nsec_year =  1386000   nsec_month = 1386000   nsec_day =  3600
   nsec_week =   262800
======>> time-step =     205      New day, DATE Y/M/D = 0001/01/18      nday_year = 018
         nsec_year =  1472400   nsec_month = 1472400   nsec_day =  3600
   nsec_week =   349200
======>> time-step =     217      New day, DATE Y/M/D = 0001/01/19      nday_year = 019
         nsec_year =  1558800   nsec_month = 1558800   nsec_day =  3600
   nsec_week =   435600
======>> time-step =     229      New day, DATE Y/M/D = 0001/01/20      nday_year = 020
         nsec_year =  1645200   nsec_month = 1645200   nsec_day =  3600
   nsec_week =   522000
======>> time-step =     241      New day, DATE Y/M/D = 0001/01/21      nday_year = 021
         nsec_year =  1731600   nsec_month = 1731600   nsec_day =  3600
   nsec_week =   608400
======>> time-step =     253      New day, DATE Y/M/D = 0001/01/22      nday_year = 022
         nsec_year =  1818000   nsec_month = 1818000   nsec_day =  3600
   nsec_week =    90000
======>> time-step =     265      New day, DATE Y/M/D = 0001/01/23      nday_year = 023
         nsec_year =  1904400   nsec_month = 1904400   nsec_day =  3600
   nsec_week =   176400
======>> time-step =     277      New day, DATE Y/M/D = 0001/01/24      nday_year = 024
         nsec_year =  1990800   nsec_month = 1990800   nsec_day =  3600
   nsec_week =   262800
======>> time-step =     289      New day, DATE Y/M/D = 0001/01/25      nday_year = 025
         nsec_year =  2077200   nsec_month = 2077200   nsec_day =  3600
   nsec_week =   349200
======>> time-step =     301      New day, DATE Y/M/D = 0001/01/26      nday_year = 026
         nsec_year =  2163600   nsec_month = 2163600   nsec_day =  3600
   nsec_week =   435600
======>> time-step =     313      New day, DATE Y/M/D = 0001/01/27      nday_year = 027
         nsec_year =  2250000   nsec_month = 2250000   nsec_day =  3600
   nsec_week =   522000
======>> time-step =     325      New day, DATE Y/M/D = 0001/01/28      nday_year = 028
         nsec_year =  2336400   nsec_month = 2336400   nsec_day =  3600
   nsec_week =   608400
======>> time-step =     337      New day, DATE Y/M/D = 0001/01/29      nday_year = 029
         nsec_year =  2422800   nsec_month = 2422800   nsec_day =  3600
   nsec_week =    90000
======>> time-step =     349      New day, DATE Y/M/D = 0001/01/30      nday_year = 030
         nsec_year =  2509200   nsec_month = 2509200   nsec_day =  3600
   nsec_week =   176400
======>> time-step =     361      New day, DATE Y/M/D = 0001/02/01      nday_year = 031
         nsec_year =  2595600   nsec_month =    3600   nsec_day =  3600
   nsec_week =   262800
======>> time-step =     373      New day, DATE Y/M/D = 0001/02/02      nday_year = 032
         nsec_year =  2682000   nsec_month =   90000   nsec_day =  3600
   nsec_week =   349200
======>> time-step =     385      New day, DATE Y/M/D = 0001/02/03      nday_year = 033
         nsec_year =  2768400   nsec_month =  176400   nsec_day =  3600
   nsec_week =   435600
======>> time-step =     397      New day, DATE Y/M/D = 0001/02/04      nday_year = 034
         nsec_year =  2854800   nsec_month =  262800   nsec_day =  3600
   nsec_week =   522000
======>> time-step =     409      New day, DATE Y/M/D = 0001/02/05      nday_year = 035
         nsec_year =  2941200   nsec_month =  349200   nsec_day =  3600
   nsec_week =   608400
======>> time-step =     421      New day, DATE Y/M/D = 0001/02/06      nday_year = 036
         nsec_year =  3027600   nsec_month =  435600   nsec_day =  3600
   nsec_week =    90000
======>> time-step =     433      New day, DATE Y/M/D = 0001/02/07      nday_year = 037
         nsec_year =  3114000   nsec_month =  522000   nsec_day =  3600
   nsec_week =   176400
======>> time-step =     445      New day, DATE Y/M/D = 0001/02/08      nday_year = 038
         nsec_year =  3200400   nsec_month =  608400   nsec_day =  3600
   nsec_week =   262800
======>> time-step =     457      New day, DATE Y/M/D = 0001/02/09      nday_year = 039
         nsec_year =  3286800   nsec_month =  694800   nsec_day =  3600
   nsec_week =   349200
======>> time-step =     469      New day, DATE Y/M/D = 0001/02/10      nday_year = 040
         nsec_year =  3373200   nsec_month =  781200   nsec_day =  3600
   nsec_week =   435600
======>> time-step =     481      New day, DATE Y/M/D = 0001/02/11      nday_year = 041
         nsec_year =  3459600   nsec_month =  867600   nsec_day =  3600
   nsec_week =   522000
======>> time-step =     493      New day, DATE Y/M/D = 0001/02/12      nday_year = 042
         nsec_year =  3546000   nsec_month =  954000   nsec_day =  3600
   nsec_week =   608400
======>> time-step =     505      New day, DATE Y/M/D = 0001/02/13      nday_year = 043
         nsec_year =  3632400   nsec_month = 1040400   nsec_day =  3600
   nsec_week =    90000
======>> time-step =     517      New day, DATE Y/M/D = 0001/02/14      nday_year = 044
         nsec_year =  3718800   nsec_month = 1126800   nsec_day =  3600
   nsec_week =   176400
======>> time-step =     529      New day, DATE Y/M/D = 0001/02/15      nday_year = 045
         nsec_year =  3805200   nsec_month = 1213200   nsec_day =  3600
   nsec_week =   262800
======>> time-step =     541      New day, DATE Y/M/D = 0001/02/16      nday_year = 046
         nsec_year =  3891600   nsec_month = 1299600   nsec_day =  3600
   nsec_week =   349200
======>> time-step =     553      New day, DATE Y/M/D = 0001/02/17      nday_year = 047
         nsec_year =  3978000   nsec_month = 1386000   nsec_day =  3600
   nsec_week =   435600
======>> time-step =     565      New day, DATE Y/M/D = 0001/02/18      nday_year = 048
         nsec_year =  4064400   nsec_month = 1472400   nsec_day =  3600
   nsec_week =   522000
======>> time-step =     577      New day, DATE Y/M/D = 0001/02/19      nday_year = 049
         nsec_year =  4150800   nsec_month = 1558800   nsec_day =  3600
   nsec_week =   608400
======>> time-step =     589      New day, DATE Y/M/D = 0001/02/20      nday_year = 050
         nsec_year =  4237200   nsec_month = 1645200   nsec_day =  3600
   nsec_week =    90000
======>> time-step =     601      New day, DATE Y/M/D = 0001/02/21      nday_year = 051
         nsec_year =  4323600   nsec_month = 1731600   nsec_day =  3600
   nsec_week =   176400
======>> time-step =     613      New day, DATE Y/M/D = 0001/02/22      nday_year = 052
         nsec_year =  4410000   nsec_month = 1818000   nsec_day =  3600
   nsec_week =   262800
======>> time-step =     625      New day, DATE Y/M/D = 0001/02/23      nday_year = 053
         nsec_year =  4496400   nsec_month = 1904400   nsec_day =  3600
   nsec_week =   349200
======>> time-step =     637      New day, DATE Y/M/D = 0001/02/24      nday_year = 054
         nsec_year =  4582800   nsec_month = 1990800   nsec_day =  3600
   nsec_week =   435600
======>> time-step =     649      New day, DATE Y/M/D = 0001/02/25      nday_year = 055
         nsec_year =  4669200   nsec_month = 2077200   nsec_day =  3600
   nsec_week =   522000
======>> time-step =     661      New day, DATE Y/M/D = 0001/02/26      nday_year = 056
         nsec_year =  4755600   nsec_month = 2163600   nsec_day =  3600
   nsec_week =   608400
======>> time-step =     673      New day, DATE Y/M/D = 0001/02/27      nday_year = 057
         nsec_year =  4842000   nsec_month = 2250000   nsec_day =  3600
   nsec_week =    90000
======>> time-step =     685      New day, DATE Y/M/D = 0001/02/28      nday_year = 058
         nsec_year =  4928400   nsec_month = 2336400   nsec_day =  3600
   nsec_week =   176400
======>> time-step =     697      New day, DATE Y/M/D = 0001/02/29      nday_year = 059
         nsec_year =  5014800   nsec_month = 2422800   nsec_day =  3600
   nsec_week =   262800
======>> time-step =     709      New day, DATE Y/M/D = 0001/02/30      nday_year = 060
         nsec_year =  5101200   nsec_month = 2509200   nsec_day =  3600
   nsec_week =   349200
======>> time-step =     721      New day, DATE Y/M/D = 0001/03/01      nday_year = 061
         nsec_year =  5187600   nsec_month =    3600   nsec_day =  3600
   nsec_week =   435600
======>> time-step =     733      New day, DATE Y/M/D = 0001/03/02      nday_year = 062
         nsec_year =  5274000   nsec_month =   90000   nsec_day =  3600
   nsec_week =   522000
======>> time-step =     745      New day, DATE Y/M/D = 0001/03/03      nday_year = 063
         nsec_year =  5360400   nsec_month =  176400   nsec_day =  3600
   nsec_week =   608400
======>> time-step =     757      New day, DATE Y/M/D = 0001/03/04      nday_year = 064
         nsec_year =  5446800   nsec_month =  262800   nsec_day =  3600
   nsec_week =    90000
======>> time-step =     769      New day, DATE Y/M/D = 0001/03/05      nday_year = 065
         nsec_year =  5533200   nsec_month =  349200   nsec_day =  3600
   nsec_week =   176400
======>> time-step =     781      New day, DATE Y/M/D = 0001/03/06      nday_year = 066
[...]
         nsec_year = 28256400   nsec_month = 2336400   nsec_day =  3600
   nsec_week =   522000
======>> time-step =    3937      New day, DATE Y/M/D = 0001/11/29      nday_year = 329
         nsec_year = 28342800   nsec_month = 2422800   nsec_day =  3600
   nsec_week =   608400
======>> time-step =    3949      New day, DATE Y/M/D = 0001/11/30      nday_year = 330
         nsec_year = 28429200   nsec_month = 2509200   nsec_day =  3600
   nsec_week =    90000
======>> time-step =    3961      New day, DATE Y/M/D = 0001/12/01      nday_year = 331
         nsec_year = 28515600   nsec_month =    3600   nsec_day =  3600
   nsec_week =   176400
======>> time-step =    3973      New day, DATE Y/M/D = 0001/12/02      nday_year = 332
         nsec_year = 28602000   nsec_month =   90000   nsec_day =  3600
   nsec_week =   262800
======>> time-step =    3985      New day, DATE Y/M/D = 0001/12/03      nday_year = 333
         nsec_year = 28688400   nsec_month =  176400   nsec_day =  3600
   nsec_week =   349200
======>> time-step =    3997      New day, DATE Y/M/D = 0001/12/04      nday_year = 334
         nsec_year = 28774800   nsec_month =  262800   nsec_day =  3600
   nsec_week =   435600
======>> time-step =    4009      New day, DATE Y/M/D = 0001/12/05      nday_year = 335
         nsec_year = 28861200   nsec_month =  349200   nsec_day =  3600
   nsec_week =   522000
======>> time-step =    4021      New day, DATE Y/M/D = 0001/12/06      nday_year = 336
         nsec_year = 28947600   nsec_month =  435600   nsec_day =  3600
   nsec_week =   608400
======>> time-step =    4033      New day, DATE Y/M/D = 0001/12/07      nday_year = 337
         nsec_year = 29034000   nsec_month =  522000   nsec_day =  3600
   nsec_week =    90000
======>> time-step =    4045      New day, DATE Y/M/D = 0001/12/08      nday_year = 338
         nsec_year = 29120400   nsec_month =  608400   nsec_day =  3600
   nsec_week =   176400
======>> time-step =    4057      New day, DATE Y/M/D = 0001/12/09      nday_year = 339
         nsec_year = 29206800   nsec_month =  694800   nsec_day =  3600
   nsec_week =   262800
======>> time-step =    4069      New day, DATE Y/M/D = 0001/12/10      nday_year = 340
         nsec_year = 29293200   nsec_month =  781200   nsec_day =  3600
   nsec_week =   349200
======>> time-step =    4081      New day, DATE Y/M/D = 0001/12/11      nday_year = 341
         nsec_year = 29379600   nsec_month =  867600   nsec_day =  3600
   nsec_week =   435600
======>> time-step =    4093      New day, DATE Y/M/D = 0001/12/12      nday_year = 342
         nsec_year = 29466000   nsec_month =  954000   nsec_day =  3600
   nsec_week =   522000
======>> time-step =    4105      New day, DATE Y/M/D = 0001/12/13      nday_year = 343
         nsec_year = 29552400   nsec_month = 1040400   nsec_day =  3600
   nsec_week =   608400
======>> time-step =    4117      New day, DATE Y/M/D = 0001/12/14      nday_year = 344
         nsec_year = 29638800   nsec_month = 1126800   nsec_day =  3600
   nsec_week =    90000
======>> time-step =    4129      New day, DATE Y/M/D = 0001/12/15      nday_year = 345
         nsec_year = 29725200   nsec_month = 1213200   nsec_day =  3600
   nsec_week =   176400
======>> time-step =    4141      New day, DATE Y/M/D = 0001/12/16      nday_year = 346
         nsec_year = 29811600   nsec_month = 1299600   nsec_day =  3600
   nsec_week =   262800
======>> time-step =    4153      New day, DATE Y/M/D = 0001/12/17      nday_year = 347
         nsec_year = 29898000   nsec_month = 1386000   nsec_day =  3600
   nsec_week =   349200
======>> time-step =    4165      New day, DATE Y/M/D = 0001/12/18      nday_year = 348
         nsec_year = 29984400   nsec_month = 1472400   nsec_day =  3600
   nsec_week =   435600
======>> time-step =    4177      New day, DATE Y/M/D = 0001/12/19      nday_year = 349
         nsec_year = 30070800   nsec_month = 1558800   nsec_day =  3600
   nsec_week =   522000
======>> time-step =    4189      New day, DATE Y/M/D = 0001/12/20      nday_year = 350
         nsec_year = 30157200   nsec_month = 1645200   nsec_day =  3600
   nsec_week =   608400
======>> time-step =    4201      New day, DATE Y/M/D = 0001/12/21      nday_year = 351
         nsec_year = 30243600   nsec_month = 1731600   nsec_day =  3600
   nsec_week =    90000
======>> time-step =    4213      New day, DATE Y/M/D = 0001/12/22      nday_year = 352
         nsec_year = 30330000   nsec_month = 1818000   nsec_day =  3600
   nsec_week =   176400
======>> time-step =    4225      New day, DATE Y/M/D = 0001/12/23      nday_year = 353
         nsec_year = 30416400   nsec_month = 1904400   nsec_day =  3600
   nsec_week =   262800
======>> time-step =    4237      New day, DATE Y/M/D = 0001/12/24      nday_year = 354
         nsec_year = 30502800   nsec_month = 1990800   nsec_day =  3600
   nsec_week =   349200
======>> time-step =    4249      New day, DATE Y/M/D = 0001/12/25      nday_year = 355
         nsec_year = 30589200   nsec_month = 2077200   nsec_day =  3600
   nsec_week =   435600
======>> time-step =    4261      New day, DATE Y/M/D = 0001/12/26      nday_year = 356
         nsec_year = 30675600   nsec_month = 2163600   nsec_day =  3600
   nsec_week =   522000
======>> time-step =    4273      New day, DATE Y/M/D = 0001/12/27      nday_year = 357
         nsec_year = 30762000   nsec_month = 2250000   nsec_day =  3600
   nsec_week =   608400
======>> time-step =    4285      New day, DATE Y/M/D = 0001/12/28      nday_year = 358
         nsec_year = 30848400   nsec_month = 2336400   nsec_day =  3600
   nsec_week =    90000
======>> time-step =    4297      New day, DATE Y/M/D = 0001/12/29      nday_year = 359
         nsec_year = 30934800   nsec_month = 2422800   nsec_day =  3600
   nsec_week =   176400
======>> time-step =    4309      New day, DATE Y/M/D = 0001/12/30      nday_year = 360
         nsec_year = 31021200   nsec_month = 2509200   nsec_day =  3600
   nsec_week =   262800

              open trc restart.output NetCDF file: ./GYRE_00004320_restart_trc                         
                     iom_nf90_open ~~~ create new file: ./GYRE_00004320_restart_trc_0000.nc in WRITE mode
                    ---> ./GYRE_00004320_restart_trc_0000.nc OK
           iom_nf90_rp0123d, file: ./GYRE_00004320_restart_trc_0000.nc, var: kt define dimension variables done
           iom_nf90_rp0123d, file: ./GYRE_00004320_restart_trc_0000.nc, var: kt defined ok
           iom_nf90_rp0123d, file: ./GYRE_00004320_restart_trc_0000.nc, var: ndastp defined ok
           iom_nf90_rp0123d, file: ./GYRE_00004320_restart_trc_0000.nc, var: adatrj defined ok
           iom_nf90_rp0123d, file: ./GYRE_00004320_restart_trc_0000.nc, var: ntime defined ok

 p2z_exp : POC in sediment fields written in ocean restart file at it=         4318  date=        11230
 ~~~~
           iom_nf90_rp0123d, file: ./GYRE_00004320_restart_trc_0000.nc, var: SEDBDET defined ok
           iom_nf90_rp0123d, file: ./GYRE_00004320_restart_trc_0000.nc, var: SEDNDET defined ok

 sbc : ocean surface tracer content forcing fields written in tracer restart file at it=         4318  date=        11230
 ~~~~
           iom_nf90_rp0123d, file: ./GYRE_00004320_restart_trc_0000.nc, var: sbc_DET_b defined ok
           iom_nf90_rp0123d, file: ./GYRE_00004320_restart_trc_0000.nc, var: sbc_ZOO_b defined ok
           iom_nf90_rp0123d, file: ./GYRE_00004320_restart_trc_0000.nc, var: sbc_PHY_b defined ok
           iom_nf90_rp0123d, file: ./GYRE_00004320_restart_trc_0000.nc, var: sbc_NO3_b defined ok
           iom_nf90_rp0123d, file: ./GYRE_00004320_restart_trc_0000.nc, var: sbc_NH4_b defined ok
           iom_nf90_rp0123d, file: ./GYRE_00004320_restart_trc_0000.nc, var: sbc_DOM_b defined ok
           iom_nf90_rp0123d, file: ./GYRE_00004320_restart_trc_0000.nc, var: rdttrc1 defined ok
           iom_nf90_rp0123d, file: ./GYRE_00004320_restart_trc_0000.nc, var: TRNDET defined ok
           iom_nf90_rp0123d, file: ./GYRE_00004320_restart_trc_0000.nc, var: TRNZOO defined ok
           iom_nf90_rp0123d, file: ./GYRE_00004320_restart_trc_0000.nc, var: TRNPHY defined ok
           iom_nf90_rp0123d, file: ./GYRE_00004320_restart_trc_0000.nc, var: TRNNO3 defined ok
           iom_nf90_rp0123d, file: ./GYRE_00004320_restart_trc_0000.nc, var: TRNNH4 defined ok
           iom_nf90_rp0123d, file: ./GYRE_00004320_restart_trc_0000.nc, var: TRNDOM defined ok
           iom_nf90_rp0123d, file: ./GYRE_00004320_restart_trc_0000.nc, var: TRBDET defined ok
           iom_nf90_rp0123d, file: ./GYRE_00004320_restart_trc_0000.nc, var: TRBZOO defined ok
           iom_nf90_rp0123d, file: ./GYRE_00004320_restart_trc_0000.nc, var: TRBPHY defined ok
           iom_nf90_rp0123d, file: ./GYRE_00004320_restart_trc_0000.nc, var: TRBNO3 defined ok
           iom_nf90_rp0123d, file: ./GYRE_00004320_restart_trc_0000.nc, var: TRBNH4 defined ok
           iom_nf90_rp0123d, file: ./GYRE_00004320_restart_trc_0000.nc, var: TRBDOM defined ok

              open ocean restart NetCDF file: ./GYRE_00004320_restart
              kt = nitrst - 1 =         4319
                     iom_nf90_open ~~~ create new file: ./GYRE_00004320_restart_0000.nc in WRITE mode
                    ---> ./GYRE_00004320_restart_0000.nc OK
           iom_nf90_rp0123d, file: ./GYRE_00004320_restart_0000.nc, var: kt define dimension variables done
           iom_nf90_rp0123d, file: ./GYRE_00004320_restart_0000.nc, var: kt defined ok
           iom_nf90_rp0123d, file: ./GYRE_00004320_restart_0000.nc, var: ndastp defined ok
           iom_nf90_rp0123d, file: ./GYRE_00004320_restart_0000.nc, var: adatrj defined ok
           iom_nf90_rp0123d, file: ./GYRE_00004320_restart_0000.nc, var: ntime defined ok

 sbc : ocean surface forcing fields written in ocean restart file at it=         4319  date=        11230
 ~~~~
           iom_nf90_rp0123d, file: ./GYRE_00004320_restart_0000.nc, var: utau_b defined ok
           iom_nf90_rp0123d, file: ./GYRE_00004320_restart_0000.nc, var: vtau_b defined ok
           iom_nf90_rp0123d, file: ./GYRE_00004320_restart_0000.nc, var: qns_b defined ok
           iom_nf90_rp0123d, file: ./GYRE_00004320_restart_0000.nc, var: emp_b defined ok
           iom_nf90_rp0123d, file: ./GYRE_00004320_restart_0000.nc, var: sfx_b defined ok
 ---- tke_rst ----
           iom_nf90_rp0123d, file: ./GYRE_00004320_restart_0000.nc, var: en defined ok
           iom_nf90_rp0123d, file: ./GYRE_00004320_restart_0000.nc, var: avt_k defined ok
           iom_nf90_rp0123d, file: ./GYRE_00004320_restart_0000.nc, var: avm_k defined ok
           iom_nf90_rp0123d, file: ./GYRE_00004320_restart_0000.nc, var: dissl defined ok
 ---- ts_rst ----
           iom_nf90_rp0123d, file: ./GYRE_00004320_restart_0000.nc, var: ub2_b defined ok
           iom_nf90_rp0123d, file: ./GYRE_00004320_restart_0000.nc, var: vb2_b defined ok
           iom_nf90_rp0123d, file: ./GYRE_00004320_restart_0000.nc, var: un_bf defined ok
           iom_nf90_rp0123d, file: ./GYRE_00004320_restart_0000.nc, var: vn_bf defined ok

 p2z_exp : POC in sediment fields written in ocean restart file at it=         4319  date=        11230
 ~~~~

 sbc : ocean surface tracer content forcing fields written in tracer restart file at it=         4319  date=        11230
 ~~~~
           iom_nf90_rp0123d, file: ./GYRE_00004320_restart_0000.nc, var: sbc_hc_b defined ok
           iom_nf90_rp0123d, file: ./GYRE_00004320_restart_0000.nc, var: sbc_sc_b defined ok
           iom_nf90_rp0123d, file: ./GYRE_00004320_restart_0000.nc, var: qsr_hc_b defined ok
           iom_nf90_rp0123d, file: ./GYRE_00004320_restart_0000.nc, var: fraqsr_1lev defined ok
           iom_nf90_rp0123d, file: ./GYRE_00004320_restart_0000.nc, var: rdt defined ok
           iom_nf90_rp0123d, file: ./GYRE_00004320_restart_0000.nc, var: ub defined ok
           iom_nf90_rp0123d, file: ./GYRE_00004320_restart_0000.nc, var: vb defined ok
           iom_nf90_rp0123d, file: ./GYRE_00004320_restart_0000.nc, var: tb defined ok
           iom_nf90_rp0123d, file: ./GYRE_00004320_restart_0000.nc, var: sb defined ok
           iom_nf90_rp0123d, file: ./GYRE_00004320_restart_0000.nc, var: sshb defined ok
           iom_nf90_rp0123d, file: ./GYRE_00004320_restart_0000.nc, var: un defined ok
           iom_nf90_rp0123d, file: ./GYRE_00004320_restart_0000.nc, var: vn defined ok
           iom_nf90_rp0123d, file: ./GYRE_00004320_restart_0000.nc, var: tn defined ok
           iom_nf90_rp0123d, file: ./GYRE_00004320_restart_0000.nc, var: sn defined ok
           iom_nf90_rp0123d, file: ./GYRE_00004320_restart_0000.nc, var: sshn defined ok
           iom_nf90_rp0123d, file: ./GYRE_00004320_restart_0000.nc, var: rhop defined ok

 rst_write : write oce restart file  kt =        4320
 ~~~~~~~
           iom_nf90_rp0123d, file: ./GYRE_00004320_restart_0000.nc, var: kt written ok
           iom_nf90_rp0123d, file: ./GYRE_00004320_restart_0000.nc, var: ndastp written ok
           iom_nf90_rp0123d, file: ./GYRE_00004320_restart_0000.nc, var: adatrj written ok
           iom_nf90_rp0123d, file: ./GYRE_00004320_restart_0000.nc, var: ntime written ok

 sbc : ocean surface forcing fields written in ocean restart file at it=         4320  date=        11230
 ~~~~
           iom_nf90_rp0123d, file: ./GYRE_00004320_restart_0000.nc, var: utau_b write dimension variables done
           iom_nf90_rp0123d, file: ./GYRE_00004320_restart_0000.nc, var: utau_b written ok
           iom_nf90_rp0123d, file: ./GYRE_00004320_restart_0000.nc, var: vtau_b written ok
           iom_nf90_rp0123d, file: ./GYRE_00004320_restart_0000.nc, var: qns_b written ok
           iom_nf90_rp0123d, file: ./GYRE_00004320_restart_0000.nc, var: emp_b written ok
           iom_nf90_rp0123d, file: ./GYRE_00004320_restart_0000.nc, var: sfx_b written ok
 ---- tke_rst ----
           iom_nf90_rp0123d, file: ./GYRE_00004320_restart_0000.nc, var: en written ok
           iom_nf90_rp0123d, file: ./GYRE_00004320_restart_0000.nc, var: avt_k written ok
           iom_nf90_rp0123d, file: ./GYRE_00004320_restart_0000.nc, var: avm_k written ok
           iom_nf90_rp0123d, file: ./GYRE_00004320_restart_0000.nc, var: dissl written ok
 ---- ts_rst ----
           iom_nf90_rp0123d, file: ./GYRE_00004320_restart_0000.nc, var: ub2_b written ok
           iom_nf90_rp0123d, file: ./GYRE_00004320_restart_0000.nc, var: vb2_b written ok
           iom_nf90_rp0123d, file: ./GYRE_00004320_restart_0000.nc, var: un_bf written ok
           iom_nf90_rp0123d, file: ./GYRE_00004320_restart_0000.nc, var: vn_bf written ok

 trc_wri : write the TOP restart file (NetCDF) at it=         4320  date=        11230
 ~~~~~~~
           iom_nf90_rp0123d, file: ./GYRE_00004320_restart_trc_0000.nc, var: kt written ok
           iom_nf90_rp0123d, file: ./GYRE_00004320_restart_trc_0000.nc, var: ndastp written ok
           iom_nf90_rp0123d, file: ./GYRE_00004320_restart_trc_0000.nc, var: adatrj written ok
           iom_nf90_rp0123d, file: ./GYRE_00004320_restart_trc_0000.nc, var: ntime written ok

 p2z_exp : POC in sediment fields written in ocean restart file at it=         4320  date=        11230
 ~~~~
           iom_nf90_rp0123d, file: ./GYRE_00004320_restart_trc_0000.nc, var: SEDBDET write dimension variables done
           iom_nf90_rp0123d, file: ./GYRE_00004320_restart_trc_0000.nc, var: SEDBDET written ok
           iom_nf90_rp0123d, file: ./GYRE_00004320_restart_trc_0000.nc, var: SEDNDET written ok

 sbc : ocean surface tracer content forcing fields written in tracer restart file at it=         4320  date=        11230
 ~~~~
           iom_nf90_rp0123d, file: ./GYRE_00004320_restart_trc_0000.nc, var: sbc_DET_b written ok
           iom_nf90_rp0123d, file: ./GYRE_00004320_restart_trc_0000.nc, var: sbc_ZOO_b written ok
           iom_nf90_rp0123d, file: ./GYRE_00004320_restart_trc_0000.nc, var: sbc_PHY_b written ok
           iom_nf90_rp0123d, file: ./GYRE_00004320_restart_trc_0000.nc, var: sbc_NO3_b written ok
           iom_nf90_rp0123d, file: ./GYRE_00004320_restart_trc_0000.nc, var: sbc_NH4_b written ok
           iom_nf90_rp0123d, file: ./GYRE_00004320_restart_trc_0000.nc, var: sbc_DOM_b written ok
           iom_nf90_rp0123d, file: ./GYRE_00004320_restart_trc_0000.nc, var: rdttrc1 written ok
           iom_nf90_rp0123d, file: ./GYRE_00004320_restart_trc_0000.nc, var: TRNDET written ok
           iom_nf90_rp0123d, file: ./GYRE_00004320_restart_trc_0000.nc, var: TRNZOO written ok
           iom_nf90_rp0123d, file: ./GYRE_00004320_restart_trc_0000.nc, var: TRNPHY written ok
           iom_nf90_rp0123d, file: ./GYRE_00004320_restart_trc_0000.nc, var: TRNNO3 written ok
           iom_nf90_rp0123d, file: ./GYRE_00004320_restart_trc_0000.nc, var: TRNNH4 written ok
           iom_nf90_rp0123d, file: ./GYRE_00004320_restart_trc_0000.nc, var: TRNDOM written ok
           iom_nf90_rp0123d, file: ./GYRE_00004320_restart_trc_0000.nc, var: TRBDET written ok
           iom_nf90_rp0123d, file: ./GYRE_00004320_restart_trc_0000.nc, var: TRBZOO written ok
           iom_nf90_rp0123d, file: ./GYRE_00004320_restart_trc_0000.nc, var: TRBPHY written ok
           iom_nf90_rp0123d, file: ./GYRE_00004320_restart_trc_0000.nc, var: TRBNO3 written ok
           iom_nf90_rp0123d, file: ./GYRE_00004320_restart_trc_0000.nc, var: TRBNH4 written ok
           iom_nf90_rp0123d, file: ./GYRE_00004320_restart_trc_0000.nc, var: TRBDOM written ok

            ----TRACER STAT----             

 tracer nb : 1    name :       DET    mean :  0.5842952550E-02    min :  0.2781213761E-07    max :  0.4420727989E+00    drift : -0.9415704745E+02 %
 tracer nb : 2    name :       ZOO    mean :  0.4872411279E-03    min : -0.3543778605E-01    max :  0.4859446246E+00    drift : -0.9951275887E+02 %
 tracer nb : 3    name :       PHY    mean :  0.6755823220E-02    min : -0.5703205797E-01    max :  0.8619955472E+00    drift : -0.9324417678E+02 %
 tracer nb : 4    name :       NO3    mean :  0.3139923057E+01    min :  0.8768634937E-02    max :  0.3907535217E+01    drift :  0.5699615287E+02 %
 tracer nb : 5    name :       NH4    mean :  0.2336338458E-01    min : -0.7936235109E-01    max :  0.1304793157E+00    drift : -0.7663661542E+02 %
 tracer nb : 6    name :       DOM    mean :  0.2231978349E+00    min :  0.1705808966E+00    max :  0.1845760817E+01    drift : -0.7768021651E+02 %

                     iom_close ~~~ close file: ./GYRE_00004320_restart_trc_0000.nc ok
           iom_nf90_rp0123d, file: ./GYRE_00004320_restart_0000.nc, var: sbc_hc_b written ok
           iom_nf90_rp0123d, file: ./GYRE_00004320_restart_0000.nc, var: sbc_sc_b written ok
           iom_nf90_rp0123d, file: ./GYRE_00004320_restart_0000.nc, var: qsr_hc_b written ok
           iom_nf90_rp0123d, file: ./GYRE_00004320_restart_0000.nc, var: fraqsr_1lev written ok
           iom_nf90_rp0123d, file: ./GYRE_00004320_restart_0000.nc, var: rdt written ok
           iom_nf90_rp0123d, file: ./GYRE_00004320_restart_0000.nc, var: ub written ok
           iom_nf90_rp0123d, file: ./GYRE_00004320_restart_0000.nc, var: vb written ok
           iom_nf90_rp0123d, file: ./GYRE_00004320_restart_0000.nc, var: tb written ok
           iom_nf90_rp0123d, file: ./GYRE_00004320_restart_0000.nc, var: sb written ok
           iom_nf90_rp0123d, file: ./GYRE_00004320_restart_0000.nc, var: sshb written ok
           iom_nf90_rp0123d, file: ./GYRE_00004320_restart_0000.nc, var: un written ok
           iom_nf90_rp0123d, file: ./GYRE_00004320_restart_0000.nc, var: vn written ok
           iom_nf90_rp0123d, file: ./GYRE_00004320_restart_0000.nc, var: tn written ok
           iom_nf90_rp0123d, file: ./GYRE_00004320_restart_0000.nc, var: sn written ok
           iom_nf90_rp0123d, file: ./GYRE_00004320_restart_0000.nc, var: sshn written ok
           iom_nf90_rp0123d, file: ./GYRE_00004320_restart_0000.nc, var: rhop written ok
                     iom_close ~~~ close file: ./GYRE_00004320_restart_0000.nc ok

AAAAAAAA

